$
$ANSA_VERSION;19.1.4;
$
$
$ file created by  A N S A  Thu Mar 25 13:54:19 2021
$
$ output from :
$
$ /home/apakiman/leo1/Projects/carGraph/runs/YARIS/full_front/CCSA_submodel/cras
$ h_modes/CCSA_submodel_0004/CCSA_simple.key
$
$ANSA_USER_ATTRIBUTES;wall.k;INCLUDE;DM/IO Index;TEXT;3;DM/Status;TEXT;WIP;
$
$
$
$
$
$
$ANSA_COLOR;wall.k;INCLUDE;.862745106220245;.635294139385223;.968627452850342;1.
$;
*KEYWORD
*NODE
    1001           4600.   -1054.0999756     66.82499695       0       0
    1002           4600.   -1054.0999756    313.85998535       0       0
    1003           4600.   -1054.0999756    560.89501953       0       0
    1004           4600.   -1054.0999756    807.92999268       0       0
    1005           4600.   -1054.0999756    1054.9649658       0       0
    1006           4600.   -1054.0999756           1302.       0       0
    1007           4600.   -819.85559082     66.82499695       0       0
    1008           4600.   -819.89672852    313.85998535       0       0
    1009           4600.   -819.93786621    560.89501953       0       0
    1010           4600.   -819.97888184    807.92999268       0       0
    1011           4600.   -820.02001953    1054.9650879       0       0
    1012           4600.   -820.06115723           1302.       0       0
    1013           4600.   -585.61108398     66.82499695       0       0
    1014           4600.   -585.69335938    313.85998535       0       0
    1015           4600.   -585.77563477    560.89501953       0       0
    1016           4600.   -585.85778809    807.93005371       0       0
    1017           4600.   -585.94006348    1054.9650879       0       0
    1018           4600.    -586.0222168           1302.       0       0
    1019           4600.   -351.36660767     66.82499695       0       0
    1020           4600.    -351.4899292    313.85998535       0       0
$ ... 42 like lines cut
*ELEMENT_SHELL
    1001    1001    1007    1008    1002    1001
    1002    1001    1008    1009    1003    1002
    1003    1001    1009    1010    1004    1003
    1004    1001    1010    1011    1005    1004
    1005    1001    1011    1012    1006    1005
    1006    1001    1013    1014    1008    1007
    1007    1001    1014    1015    1009    1008
    1008    1001    1015    1016    1010    1009
    1009    1001    1016    1017    1011    1010
    1010    1001    1017    1018    1012    1011
    1011    1001    1019    1020    1014    1013
    1012    1001    1020    1021    1015    1014
    1013    1001    1021    1022    1016    1015
    1014    1001    1022    1023    1017    1016
    1015    1001    1023    1024    1018    1017
    1016    1001    1025    1026    1020    1019
    1017    1001    1026    1027    1021    1020
    1018    1001    1027    1028    1022    1021
    1019    1001    1028    1029    1023    1022
    1020    1001    1029    1030    1024    1023
$ ... 26 like lines cut
*RIGIDWALL_PLANAR_FINITE_FORCES_ID
         1                                                                      
         1         0                                                  
     4600.    1054.1 66.824997     4599.    1054.1 66.824997       0.6          
     4600.    1053.1 66.824997    2108.2     1236.
         0      1001      1001                              
*RIGIDWALL_PLANAR_FINITE_ID
         2                                                                      
         1         0                                                  
     4600.    1054.1     1303.     4599.    1054.1     1303.       0.6          
     4600.    1053.1     1303.    2108.2      457.
*PART
Wall
      1001      1001      1001                             0         0          
*SECTION_SHELL_TITLE
Wall
      1001         2        1.        3.        0.                   0
        1.        1.        1.        1.                            0.          
*MAT_RIGID_TITLE

      1001  7.86E-12   200000.       0.3        0.        0.        0.          
       1.0        7.        7.
        0.        0.        0.        0.        0.        0.
*SET_NODE_GENERAL_TITLE
SET_NODE_0000000001
         1                                        
ALL                 
DPART           1001
*SET_SEGMENT_TITLE
SET_SEGMENT_0000001001
      1001                                        
      1007      1008      1002      1001
      1008      1009      1003      1002
      1009      1010      1004      1003
      1010      1011      1005      1004
      1011      1012      1006      1005
      1013      1014      1008      1007
      1014      1015      1009      1008
      1015      1016      1010      1009
      1016      1017      1011      1010
      1017      1018      1012      1011
      1019      1020      1014      1013
      1020      1021      1015      1014
      1021      1022      1016      1015
      1022      1023      1017      1016
      1023      1024      1018      1017
      1025      1026      1020      1019
      1026      1027      1021      1020
      1027      1028      1022      1021
      1028      1029      1023      1022
$ ... 26 like lines cut
$ANSA_COLOR;1001;SECTION_SHELL;.976470589637756;.717647075653076;.57254904508590
$7;1.;
$ANSA_COLOR;1001;MAT20 MAT_RIGID;.792156875133514;.403921574354172;.580392181873
$322;1.;
$ANSA_USER_ATTRIBUTES;SECTION_SHELL;User/cad_material;TEXT;RW;YES;;;
$ANSA_USER_ATTRIBUTES;SECTION_SHELL;User/cad_thickness;TEXT;RW;YES;;;
$ANSA_PART;GROUP;ID;879;NAME;CCSA_simple.key;PID_OFFSET;0;COLOR;201;236;118;0;IS
$_COLOR_ACTIVE;0;ATTRIBUTES;2;DM/File Type;ANSA;DM/Status;WIP;CONTAINS;ANSAPART;
$33,36;
$ANSA_PART;PART;ID;33;MID;10001001;NAME;Wall;STUDY_VERSION;0;PID_OFFSET;0;COLOR;
$145;171;222;0;IS_COLOR_ACTIVE;1;ATTRIBUTES;2;DM/File Type;ANSA;DM/Status;WIP;CO
$NTAINS;SECTION_SHELL;1001;
$ANSA_PART;PART;ID;36;NAME;NO PID ELMNTs;STUDY_VERSION;0;PID_OFFSET;0;COLOR;152;
$69;160;0;IS_COLOR_ACTIVE;1;ATTRIBUTES;2;DM/File Type;ANSA;DM/Status;WIP;CONTAIN
$S;RIGIDWALL_PLANAR;1-2;SEGMENT;1-45;
*END
