$
$ANSA_VERSION;19.1.4;
$
$
$ file created by  A N S A  Thu Sep 15 16:10:47 2022
$
$ output from :
$
$ /home/apakiman/Projects/kg01/nrg_simRnk/extnd_mdl/model/yaris-detailed-v2j.k
$
$
$
$
*KEYWORD
*TITLE
TOYOTA YARIS DETAILED MODEL (CCSA V02)
*NODE
       1              0.              0.              0.       0       0
       2-82.130885549394-137.85967440912387.603567580988       0       0
       3-82.245181497174-147.49739587524398.813442368274       0       0
       4-78.895047629319-147.70871117507409.609742360301       0       0
       5-39.300601917597-150.23390982507474.387467533773       0       0
       6-82.705820290486-166.59007235825531.775676909496       0       0
       7-82.420222562295-156.63029995231542.138273099863       0       0
       8-39.348495882844-150.21257842644454.699482357893       0       0
       9-39.300713813974-150.27641437325464.521716004441       0       0
      10-39.408989666841-150.04210304664444.919939034925       0       0
      11-39.466507893196-149.81882976252435.192949090935       0       0
      12-39.342169541118-149.59247721416425.512898752638       0       0
      13-41.013033115264-149.33446209914416.014160226997       0       0
      14-50.396085956287-148.88267387012 413.08414505996       0       0
      15-60.128112704912-148.45283468806412.776563898906       0       0
      16-69.745560785691-148.05785232552412.226551875826       0       0
      17-82.932219964525-168.13170418397553.866055612307       0       0
      18 -40.69188316826-180.14974354406504.874573349915       0       0
      19-40.378471647132-170.60519371556483.608120875834       0       0
      20-42.113238551753-169.43070941226514.356614368847       0       0
$ ... 22176 like lines cut
*CONSTRAINED_NODAL_RIGID_BODY
      3177             2200040                   0         0         0
      3178             2200041                   0         0         0
      3179             2200042                   0         0         0
      3193             2200056                   0         0         0
      3194             2200057                   0         0         0
      3195             2200058                   0         0         0
      3196             2200059                   0         0         0
      3197             2200060                   0         0         0
      3198             2200061                   0         0         0
      3470             2200333                   0         0         0
      3697              999997                   0         0         0
      4909              999995                   0         0         0
      4910              999993                   0         0         0
      4911              999994                   0         0         0
      4916              999999                   0         0         0
      4917              999998                   0         0         0
      4918              999992                   0         0         0
      4920              999996                   0         0         0
      4923             1000000                   0         0         0
     10934              999991                   0         0         0
*CONSTRAINED_SPOTWELD_ID
      1450                                                                      
   2033334   2035546                                                            
      1470                                                                      
   2033340   2036024                                                            
      1471                                                                      
   2033466   2036035                                                            
      1472                                                                      
   2033399   2036005                                                            
      1473                                                                      
   2033366   2036013                                                            
      1474                                                                      
   2033405   2036049                                                            
      1475                                                                      
   2033410   2036051                                                            
      1476                                                                      
   2033415   2036047                                                            
      1477                                                                      
   2033460   2033102                                                            
      1478                                                                      
   2033458   2033100                                                            
$ ... 80 like lines cut
*ELEMENT_BEAM
    3236 4000486   11387   11386     194                                       2
    3237 4000486   11353   11352     194                                       2
    3239 4000486   11275   11274     194                                       2
    3677 4000486    5152    5151       1                                       2
    3678 4000486    5138    5137       1                                       2
    3679 4000486    5144    5143       1                                       2
    3680 4000486    5148    5147       1                                       2
    3682 4000486    5160    5159       1                                       2
    3684 4000486    5150    5149       1                                       2
    3686 4000486    5132    5131       1                                       2
    3687 4000486    5154    5153       1                                       2
    3688 4000486    5130    5129       1                                       2
    3696 4000486    5162    5161       1                                       2
    3700 4000486    5134    5133       1                                       2
    3701 4000486    5146    5145       1                                       2
    3702 4000486    5128    5127       1                                       2
    3703 4000486    5142    5141       1                                       2
    3704 4000486    5156    5155       1                                       2
    3706 4000486    5158    5157       1                                       2
    3707 4000486    5140    5139       1                                       2
$ ... 258 like lines cut
*ELEMENT_SHELL
       2 3000505    4992    4993    4996    4996
       3 3000505    4993    4994    4997    4996
       4 3000505    4991    4992    4996    4998
       5 3000505    4999    4997    4994    4995
       6 3000505    5000    4998    4996    4997
       7 3000505    4990    4991    4998    4998
       8 3000505    4985    4999    4995    4984
       9 3000505    5001    5000    4997    4999
      10 3000505    4989    4990    4998    5000
      11 3000505    4986    5001    4999    4985
      12 3000505    4988    4989    5000    5001
      13 3000505    4987    4988    5001    4986
      14 3000505    5014    5012    4989    4988
      15 3000505    5015    5013    5012    5014
      16 3000505    5002    5014    4988    4987
      17 3000505    5015    5017    5016    5013
      18 3000505    5003    5015    5014    5002
      19 3000505    5003    5004    5017    5015
      20 3000505    5017    5006    5007    5016
      21 3000505    5004    5005    5006    5017
$ ... 20815 like lines cut
*CONTACT_TIED_SHELL_EDGE_TO_SURFACE_ID
1         *CONTACT_TIED_SHELL_EDGE_TO_SURFACE                                   
   2000002   2000001         2         2                             0         0
                                                           0                    
                                                                                
*PART
26_bumper
   2000000   2000000   2000132                             0         0          
*SECTION_SHELL_TITLE
26_bumper
   2000000         2                  3.        0.                   0
      2.34      2.34      2.34      2.34                            0.          
*PART
114_raillowerouterL
   2000001   2000001&mL_u                                  0         0          
*SECTION_SHELL_TITLE
114_raillowerouterL
   2000001        16                  3.        1.         0         0
&tL_u     &tL_u     &tL_u     &tL_u                                 0.          
*PART
30_framefrontL
   2000002   2000002&mL_i                                  0         0          
*SECTION_SHELL_TITLE
30_framefrontL
   2000002        16                  3.        1.         0         0
&tL_i     &tL_i     &tL_i     &tL_i                                 0.          
*PART
186_railinnerRight
   2000011   2000011   2000164                             0         0          
*SECTION_SHELL_TITLE
186_railinnerRight
   2000011        16                  3.        0.                   0
     1.836     1.836     1.836     1.836                            0.          
*PART
183_railouterR
   2000012   2000012   2000163                             0         0          
*SECTION_SHELL_TITLE
183_railouterR
   2000012        16                  3.        0.                   0
     1.673     1.673     1.673     1.673                            0.          
*PART
114_raillowerouterR
   2000501   2000501&mR_u                                  0         0          
*SECTION_SHELL_TITLE
114_raillowerouterR
   2000501        16                  3.        1.         0         0
&tR_u     &tR_u     &tR_u     &tR_u                                 0.          
*PART
30_framefrontR
   2000502   2000502&mR_i                                  0         0          
*SECTION_SHELL_TITLE
30_framefrontR
   2000502        16                  3.        1.         0         0
&tR_i     &tR_i     &tR_i     &tR_i                                 0.          
*PART
186_railinnerRight
   2000511   2000511   2000164                             0         0          
*SECTION_SHELL_TITLE
186_railinnerRight
   2000511        16                  3.        0.                   0
     1.836     1.836     1.836     1.836                            0.          
*PART
183_railouterR
   2000512   2000512   2000163                             0         0          
*SECTION_SHELL_TITLE
183_railouterR
   2000512        16                  3.        0.                   0
     1.673     1.673     1.673     1.673                            0.          
*PART
31_framefrontcapL
   3000001   3000001   2000137                             0         0          
*SECTION_SHELL_TITLE
31_framefrontcapL
   3000001        16                  3.        0.                   0
       1.4       1.4       1.4       1.4                            0.          
*PART
113_raillowerconnectorL
   3000002   3000002   2000120                             0         0          
*SECTION_SHELL_TITLE
113_raillowerconnectorL
   3000002        16                  3.        0.                   0
     3.845     3.845     3.845     3.845                            0.          
*PART
112_raillowerplateleft
   3000003   3000003   2000119                             0         0          
*SECTION_SHELL_TITLE
112_raillowerplateleft
   3000003        16                  3.        0.                   0
     0.731     0.731     0.731     0.731                            0.          
*PART
177_railfrontconnector
   3000004   3000004   2000157                             0         0          
*SECTION_SHELL_TITLE
177_railfrontconnector
   3000004         2                  3.        0.                   0
     1.648     1.648     1.648     1.648                            0.          
*PART
159_railradiatorframebrkt
   3000005   3000005   2000165                             0         0          
*SECTION_SHELL_TITLE
159_railradiatorframebrkt
   3000005        16                  3.        0.                   0
      2.35      2.35      2.35      2.35                            0.          
*PART
339_railradiatorframebrkt
   3000006   3000006   2000260                             0         0          
*SECTION_SHELL_TITLE
339_railradiatorframebrkt
   3000006        16                  3.        0.                   0
      2.35      2.35      2.35      2.35                            0.          
*PART
481_railrightinternal3
   3000007   3000007   2000268                             0         0          
*SECTION_SHELL_TITLE
481_railrightinternal3
   3000007        16                  3.        0.                   0
      1.51      1.51      1.51      1.51                            0.          
*PART
480_railrightinternal2
   3000008   3000008   2000269                             0         0          
*SECTION_SHELL_TITLE
480_railrightinternal2
   3000008        16                  3.        0.                   0
     1.498     1.498     1.498     1.498                            0.          
*PART
479_railrightinternal1
   3000009   3000009   2000270                             0         0          
*SECTION_SHELL_TITLE
479_railrightinternal1
   3000009        16                  3.        0.                   0
     1.524     1.524     1.524     1.524                            0.          
*PART
31_framefrontcapL
   3000501   3000501   2000137                             0         0          
*SECTION_SHELL_TITLE
31_framefrontcapL
   3000501        16                  3.        0.                   0
       1.4       1.4       1.4       1.4                            0.          
*PART
113_raillowerconnectorL
   3000502   3000502   2000120                             0         0          
*SECTION_SHELL_TITLE
113_raillowerconnectorL
   3000502        16                  3.        0.                   0
     3.845     3.845     3.845     3.845                            0.          
*PART
112_raillowerplateleft
   3000503   3000503   2000119                             0         0          
*SECTION_SHELL_TITLE
112_raillowerplateleft
   3000503        16                  3.        0.                   0
     0.731     0.731     0.731     0.731                            0.          
*PART
177_railfrontconnector
   3000504   3000504   2000157                             0         0          
*SECTION_SHELL_TITLE
177_railfrontconnector
   3000504         2                  3.        0.                   0
     1.648     1.648     1.648     1.648                            0.          
*PART
159_railradiatorframebrkt
   3000505   3000505   2000165                             0         0          
*SECTION_SHELL_TITLE
159_railradiatorframebrkt
   3000505        16                  3.        0.                   0
      2.35      2.35      2.35      2.35                            0.          
*PART
339_railradiatorframebrkt
   3000506   3000506   2000260                             0         0          
*SECTION_SHELL_TITLE
339_railradiatorframebrkt
   3000506        16                  3.        0.                   0
      2.35      2.35      2.35      2.35                            0.          
*PART
481_railrightinternal3
   3000507   3000507   2000268                             0         0          
*SECTION_SHELL_TITLE
481_railrightinternal3
   3000507        16                  3.        0.                   0
      1.51      1.51      1.51      1.51                            0.          
*PART
480_railrightinternal2
   3000508   3000508   2000269                             0         0          
*SECTION_SHELL_TITLE
480_railrightinternal2
   3000508        16                  3.        0.                   0
     1.498     1.498     1.498     1.498                            0.          
*PART
479_railrightinternal1
   3000509   3000509   2000270                             0         0          
*SECTION_SHELL_TITLE
479_railrightinternal1
   3000509        16                  3.        0.                   0
     1.524     1.524     1.524     1.524                            0.          
*PART
639_BeamSpotWelds
   4000486   4000486   2000486                             0                    
*SECTION_BEAM_TITLE
639_BeamSpotWelds
   4000486         9        1.         0        1.                    
        5.        5.                            0.        0.
*MAT_PIECEWISE_LINEAR_PLASTICITY_TITLE
Default MAT24 MAT_PIECEWISE_LINEAR_PLASTICITY
   2000119   7.89E-9   200000.       0.3      270.                              
     8000.        8.   2100270                  0.
                                                                                
                                                                                
*MAT_PIECEWISE_LINEAR_PLASTICITY_TITLE
Default MAT24 MAT_PIECEWISE_LINEAR_PLASTICITY
   2000120   7.89E-9   200000.       0.3      270.                              
     8000.        8.   2100270                  0.
                                                                                
                                                                                
*MAT_PIECEWISE_LINEAR_PLASTICITY_TITLE
Default MAT24 MAT_PIECEWISE_LINEAR_PLASTICITY
   2000121   7.89E-9   200000.       0.3      380.                              
     8000.        8.   2100380                  0.
                                                                                
                                                                                
*MAT_PIECEWISE_LINEAR_PLASTICITY_TITLE
Default MAT24 MAT_PIECEWISE_LINEAR_PLASTICITY
   2000132   7.89E-9   200000.       0.3      800.                              
     8000.        8.   2100800                  0.
                                                                                
                                                                                
*MAT_PIECEWISE_LINEAR_PLASTICITY_TITLE
Default MAT24 MAT_PIECEWISE_LINEAR_PLASTICITY
   2000137   7.89E-9   200000.       0.3      270.                              
     8000.        8.   2100270                  0.
                                                                                
                                                                                
*MAT_PIECEWISE_LINEAR_PLASTICITY_TITLE
Default MAT24 MAT_PIECEWISE_LINEAR_PLASTICITY
   2000142   7.89E-9   200000.       0.3      380.                              
     8000.        8.   2100380                  0.
                                                                                
                                                                                
*MAT_PIECEWISE_LINEAR_PLASTICITY_TITLE
Default MAT24 MAT_PIECEWISE_LINEAR_PLASTICITY
   2000157   7.89E-9   200000.       0.3      270.                              
     8000.        8.   2100270                  0.
                                                                                
                                                                                
*MAT_PIECEWISE_LINEAR_PLASTICITY_TITLE
Default MAT24 MAT_PIECEWISE_LINEAR_PLASTICITY
   2000163   7.89E-9   200000.       0.3      380.                              
     8000.        8.   2100380                  0.
                                                                                
                                                                                
*MAT_PIECEWISE_LINEAR_PLASTICITY_TITLE
Default MAT24 MAT_PIECEWISE_LINEAR_PLASTICITY
   2000164   7.89E-9   200000.       0.3      350.                              
     8000.        8.   2100350                  0.
                                                                                
                                                                                
*MAT_PIECEWISE_LINEAR_PLASTICITY_TITLE
Default MAT24 MAT_PIECEWISE_LINEAR_PLASTICITY
   2000165   7.89E-9   200000.       0.3      270.                              
     8000.        8.   2100270                  0.
                                                                                
                                                                                
*MAT_PIECEWISE_LINEAR_PLASTICITY_TITLE
Default MAT24 MAT_PIECEWISE_LINEAR_PLASTICITY
   2000260   7.89E-9   200000.       0.3      270.                              
     8000.        8.   2100270                  0.
                                                                                
                                                                                
*MAT_PIECEWISE_LINEAR_PLASTICITY_TITLE
Default MAT24 MAT_PIECEWISE_LINEAR_PLASTICITY
   2000268   7.89E-9   200000.       0.3      350.                              
     8000.        8.   2100350                  0.
                                                                                
                                                                                
*MAT_PIECEWISE_LINEAR_PLASTICITY_TITLE
Default MAT24 MAT_PIECEWISE_LINEAR_PLASTICITY
   2000269   7.89E-9   200000.       0.3      350.                              
     8000.        8.   2100350                  0.
                                                                                
                                                                                
*MAT_PIECEWISE_LINEAR_PLASTICITY_TITLE
Default MAT24 MAT_PIECEWISE_LINEAR_PLASTICITY
   2000270   7.89E-9   200000.       0.3      350.                              
     8000.        8.   2100350                  0.
                                                                                
                                                                                
*MAT_SPOTWELD_TITLE
Default MAT100 MAT_SPOTWELD
   2000486    7.8E-9    50000.       0.3      300.     5000.               1.E20
     2.E20                                                                      
*DEFINE_CURVE
   2100270         0        1.        1.                                        
                  0.                270.
           0.0066667         290.6932983
           0.0133333         301.8137817
                0.02         309.6717529
           0.0266667         315.6734924
           0.0333333         320.6657715
                0.04         324.6350098
           0.0466667         327.4075623
           0.0533333         329.4056396
                0.06          331.365448
           0.0666667         332.9006042
           0.0733333         334.2084045
                0.08         335.3573608
           0.0866667         336.8661499
           0.0933333         338.2955933
                 0.1         339.3882141
           0.1066667         340.7153015
           0.1133333         342.0019836
                0.12         343.2947083
$ ... 27 like lines cut
*DEFINE_CURVE
   2100350         0        1.        1.                                        
                  0.                350.
               0.011                400.
               0.025                442.
                0.05                490.
               0.075                520.
                 0.1                541.
               0.125                560.
                0.15                574.
               0.175                588.
                 0.2                600.
                 0.3                650.
*DEFINE_CURVE
   2100380         0        1.        1.                                        
                  0.                380.
               0.025                430.
                0.05                470.
               0.075                502.
                 0.1                526.
               0.125                545.
                0.15                560.
               0.175                573.
                 0.2                584.
                0.25                594.
*DEFINE_CURVE
   2100800         0        1.        1.                                        
                  0.                800.
               0.003               1000.
               0.006               1100.
               0.012               1255.
                0.02               1360.
               0.036               1450.
               0.048               1485.
               0.059               1500.
               0.094               1550.
*SET_NODE_LIST_TITLE
SET_NODE_0002200333@_1
    999991                                        
     11442      8851      8894      8898     11440     11441     11443      8852
*SET_NODE_LIST_TITLE
SET_NODE_0002200061@_1
    999992                                        
      4389      4390      4430      4433      4844      4845      4846      4848
      5075      5125      5126      5100
*SET_NODE_LIST_TITLE
SET_NODE_0002200056@_1
    999993                                        
      4392      4393      4394      4396      4659      4662      4663      4666
      4977      4978      4979      5067      5087      5088      5096      4980
*SET_NODE_LIST_TITLE
SET_NODE_0002200058@_1
    999994                                        
      2975      2980      2984      4475      4476      4499      4500      4754
      4755      4770      4838      4981      4982      4983
*SET_NODE_LIST_TITLE
SET_NODE_0002200057@_1
    999995                                        
      2786      2788      2789      2792      4242      4245      4247      4250
      4859      4860      4876      4877      4973      4974      4975      4976
*SET_NODE_LIST_TITLE
SET_NODE_0002200041@_1
    999996                                        
      1699      1701      1702      1703      2568      2571      2572      2575
*SET_NODE_LIST_TITLE
SET_NODE_0002200042@_1
    999997                                        
      1657      1659      1660      1662      2622      2623      2624      2625
*SET_NODE_LIST_TITLE
SET_NODE_0002200040@_2
    999998                                        
      1479      1480      1508      1524      1527      2495      2496      2497
      2498      2502      2503      1505
*SET_NODE_LIST_TITLE
SET_NODE_0002200059@_1
    999999                                        
      4155      4156      4177      4179      4881      4882      4884      4886
      5013      5016      5017      5015
*SET_NODE_LIST_TITLE
SET_NODE_0002200060@_1
   1000000                                        
      4150      4151      4171      4172      4702      4705      4706      4709
      4999      5000      5001      4997
*SET_PART_LIST_TITLE
tied contact master
   2000001                                        
   2000001   2000002   2000011   2000012   2000501   2000502   2000511   2000512
   3000001   3000002   3000003   3000004   3000005   3000006   3000007   3000008
   3000009   3000501   3000502   3000503   3000504   3000505   3000506   3000507
   3000508   3000509
*SET_PART_LIST_TITLE
tied contact slave
   2000002                                        
   4000486
*SET_NODE_LIST_TITLE
SET_NODE_0002200040
   2200040                                        
   2032180   2032181   2032206   2032209   2032225   2032228   2033354   2033355
   2033356   2033357   2033363   2033364
*SET_NODE_LIST_TITLE
SET_NODE_0002200041
   2200041                                        
   2032400   2032402   2032403   2032404   2033434   2033437   2033438   2033441
*SET_NODE_LIST_TITLE
SET_NODE_0002200042
   2200042                                        
   2032358   2032360   2032361   2032363   2033489   2033490   2033491   2033492
*SET_NODE_LIST_TITLE
SET_NODE_0002200056
   2200056                                        
   2039214   2039215   2039216   2039803   2039806   2039807   2039810   2046752
   2046753   2046758   2046765   2177146   2177166   2177167   2177175   2039218
*SET_NODE_LIST_TITLE
SET_NODE_0002200057
   2200057                                        
   2033925   2033927   2033928   2033931   2039064   2039067   2039069   2040003
   2040004   2040020   2040021   2046497   2046503   2046505   2046511   2039072
*SET_NODE_LIST_TITLE
SET_NODE_0002200058
   2200058                                        
   2034118   2034125   2034130   2039297   2039298   2039321   2039898   2039899
   2039914   2039982   2046860   2046861   2046862   2039322
*SET_NODE_LIST_TITLE
SET_NODE_0002200059
   2200059                                        
   2038977   2038978   2038999   2040025   2040026   2040028   2040030   2067359
   2067361   2067362   2067363   2039001
*SET_NODE_LIST_TITLE
SET_NODE_0002200060
   2200060                                        
   2038972   2038973   2038993   2039846   2039849   2039850   2039853   2067343
   2067345   2067346   2067347   2038994
*SET_NODE_LIST_TITLE
SET_NODE_0002200061
   2200061                                        
   2039211   2039212   2039252   2039988   2039989   2039990   2039992   2177154
   2177179   2177204   2177205   2039255
*SET_NODE_LIST_TITLE
SET_NODE_0002200333
   2200333                                        
   2875437   2075102   2075144   2075148   2875434   2875436   2075101   2875438
$ANSA_COLOR;2000000;SECTION_SHELL;0.65490198135376;.219607844948769;0.1882352977
$9911;1.;
$ANSA_COLOR;2000001;SECTION_SHELL;.560784339904785;.682352960109711;.07843137532
$4726;1.;
$ANSA_COLOR;2000002;SECTION_SHELL;.745098054409027;.890196084976196;.37647059559
$8221;1.;
$ANSA_COLOR;2000011;SECTION_SHELL;.964705884456635;.074509806931019;.12941177189
$3501;1.;
$ANSA_COLOR;2000012;SECTION_SHELL;.643137276172638;.180392161011696;.54117649793
$6249;1.;
$ANSA_COLOR;2000501;SECTION_SHELL;.643137276172638;.286274522542953;.63921570777
$8931;1.;
$ANSA_COLOR;2000502;SECTION_SHELL;.882352948188782;.007843137718737;.27450981736
$1832;1.;
$ANSA_COLOR;2000511;SECTION_SHELL;.937254905700684;.964705884456635;.59607845544
$8151;1.;
$ANSA_COLOR;2000512;SECTION_SHELL;.925490200519562;.098039217293262;.67843139171
$6003;1.;
$ANSA_COLOR;3000001;SECTION_SHELL;.701960802078247;.556862771511078;0.7843137383
$461;1.;
$ANSA_COLOR;3000002;SECTION_SHELL;.552941203117371;.815686285495758;.16078431904
$3159;1.;
$ANSA_COLOR;3000003;SECTION_SHELL;.541176497936249;.949019610881805;.23921568691
$7305;1.;
$ANSA_COLOR;3000004;SECTION_SHELL;.874509811401367;.894117653369904;.16078431904
$3159;1.;
$ANSA_COLOR;3000005;SECTION_SHELL;.945098042488098;.831372559070587;.51372551918
$0298;1.;
$ANSA_COLOR;3000006;SECTION_SHELL;.772549033164978;.196078434586525;.81960785388
$9465;1.;
$ANSA_COLOR;3000007;SECTION_SHELL;.945098042488098;.200000002980232;.53333336114
$8834;1.;
$ANSA_COLOR;3000008;SECTION_SHELL;.917647063732147;.968627452850342;.24313725531
$1012;1.;
$ANSA_COLOR;3000009;SECTION_SHELL;0.87058824300766;.129411771893501;.09803921729
$3262;1.;
$ANSA_COLOR;3000501;SECTION_SHELL;.709803938865662;.737254917621613;.63921570777
$8931;1.;
$ANSA_COLOR;3000502;SECTION_SHELL;0.65490198135376;.380392163991928;.58431375026
$7029;1.;
$ ... 11 like lines cut
$ANSA_COLOR;3000509;SECTION_SHELL;.858823537826538;.866666674613953;.01176470611
$2444;1.;
$ANSA_COLOR;4000486;SECTION_BEAM_ELFORM_9;.745098054409027;.137254908680916;.517
$647087574005;1.;
$ANSA_COLOR;2000119;MAT24 MAT_PIECEWISE_LINEAR_PLASTICITY;.658823549747467;.4823
$52942228317;.701960802078247;1.;
$ANSA_COLOR;2000120;MAT24 MAT_PIECEWISE_LINEAR_PLASTICITY;.666666686534882;0.349
$01961684227;.623529434204102;1.;
$ANSA_COLOR;2000121;MAT24 MAT_PIECEWISE_LINEAR_PLASTICITY;.674509823322296;.2156
$86276555061;.541176497936249;1.;
$ANSA_COLOR;2000132;MAT24 MAT_PIECEWISE_LINEAR_PLASTICITY;.772549033164978;.7529
$41191196442;.650980412960052;1.;
$ANSA_COLOR;2000137;MAT24 MAT_PIECEWISE_LINEAR_PLASTICITY;.815686285495758;.0862
$74512112141;0.24705882370472;1.;
$ANSA_COLOR;2000142;MAT24 MAT_PIECEWISE_LINEAR_PLASTICITY;.858823537826538;.4235
$29416322708;.839215695858002;1.;
$ANSA_COLOR;2000157;MAT24 MAT_PIECEWISE_LINEAR_PLASTICITY;.992156863212585;.4274
$50984716415;.627451002597809;1.;
$ANSA_COLOR;2000163;MAT24 MAT_PIECEWISE_LINEAR_PLASTICITY;.541176497936249;.6313
$72570991516;.141176477074623;1.;
$ANSA_COLOR;2000164;MAT24 MAT_PIECEWISE_LINEAR_PLASTICITY;.552941203117371;.4980
$39215803146;.058823529630899;1.;
$ANSA_COLOR;2000165;MAT24 MAT_PIECEWISE_LINEAR_PLASTICITY;.560784339904785;.3647
$05890417099;.976470589637756;1.;
$ANSA_COLOR;2000260;MAT24 MAT_PIECEWISE_LINEAR_PLASTICITY;.890196084976196;.7294
$11780834198;.286274522542953;1.;
$ANSA_COLOR;2000268;MAT24 MAT_PIECEWISE_LINEAR_PLASTICITY;0.95686274766922;.6627
$45118141174;.635294139385223;1.;
$ANSA_COLOR;2000269;MAT24 MAT_PIECEWISE_LINEAR_PLASTICITY;.968627452850342;.5333
$33361148834;.556862771511078;1.;
$ANSA_COLOR;2000270;MAT24 MAT_PIECEWISE_LINEAR_PLASTICITY;.976470589637756;.4000
$00005960464;.474509805440903;1.;
$ANSA_COLOR;2000486;MAT100 MAT_SPOTWELD;.858823537826538;.670588254928589;.98039
$2158031464;1.;
$ANSA_USER_ATTRIBUTES;SECTION_SHELL;User/cad_material;TEXT;RW;YES;;;
$ANSA_USER_ATTRIBUTES;SECTION_SHELL;User/cad_thickness;TEXT;RW;YES;;;
$ANSA_PART;GROUP;ID;1;NAME;CCSA_engine_0001.key;BELONGS_HERE;YES;PID_OFFSET;0;CO
$LOR;201;236;118;0;IS_COLOR_ACTIVE;1;ATTRIBUTES;2;DM/File Type;ANSA;DM/Status;WI
$P;CONTAINS;ANSAPART;103,106,120,143,145,179,190-193,212,237,445-446,878,934;
$ANSA_PART;PART;ID;103;MID;2000132;NAME;26_bumper;BELONGS_HERE;YES;STUDY_VERSION
$;0;PID_OFFSET;0;COLOR;173;91;51;0;IS_COLOR_ACTIVE;1;ATTRIBUTES;2;DM/File Type;A
$NSA;DM/Status;WIP;CONTAINS;SECTION_SHELL;2000000;
$ANSA_PART;PART;ID;106;MID;2000121;NAME;114_raillowerouterL;BELONGS_HERE;YES;STU
$DY_VERSION;0;PID_OFFSET;0;COLOR;180;245;244;0;IS_COLOR_ACTIVE;1;ATTRIBUTES;2;DM
$/File Type;ANSA;DM/Status;WIP;CONTAINS;SECTION_SHELL;2000001,2000501;
$ANSA_PART;PART;ID;120;MID;2000157;NAME;177_railfrontconnector;BELONGS_HERE;YES;
$STUDY_VERSION;0;PID_OFFSET;0;COLOR;211;25;210;0;IS_COLOR_ACTIVE;1;ATTRIBUTES;2;
$DM/File Type;ANSA;DM/Status;WIP;CONTAINS;SECTION_SHELL;3000004,3000504;
$ANSA_PART;PART;ID;143;MID;2000163;NAME;183_railouterR;BELONGS_HERE;YES;STUDY_VE
$RSION;0;PID_OFFSET;0;COLOR;135;10;245;0;IS_COLOR_ACTIVE;1;ATTRIBUTES;2;DM/File 
$Type;ANSA;DM/Status;WIP;CONTAINS;SECTION_SHELL;2000012,2000512;
$ANSA_PART;PART;ID;145;MID;2000164;NAME;186_railinnerRight;BELONGS_HERE;YES;STUD
$Y_VERSION;0;PID_OFFSET;0;COLOR;139;197;204;0;IS_COLOR_ACTIVE;1;ATTRIBUTES;2;DM/
$File Type;ANSA;DM/Status;WIP;CONTAINS;SECTION_SHELL;2000011,2000511;
$ANSA_PART;PART;ID;179;MID;2000268;NAME;481_railrightinternal3;BELONGS_HERE;YES;
$STUDY_VERSION;0;PID_OFFSET;0;COLOR;215;64;12;0;IS_COLOR_ACTIVE;1;ATTRIBUTES;2;D
$M/File Type;ANSA;DM/Status;WIP;CONTAINS;SECTION_SHELL;3000007,3000507;
$ANSA_PART;PART;ID;190;MID;2000142;NAME;30_framefrontL;BELONGS_HERE;YES;STUDY_VE
$RSION;0;PID_OFFSET;0;COLOR;239;201;40;0;IS_COLOR_ACTIVE;1;ATTRIBUTES;2;DM/File 
$Type;ANSA;DM/Status;WIP;CONTAINS;SECTION_SHELL;2000002,2000502;
$ANSA_PART;PART;ID;191;MID;2000137;NAME;31_framefrontcapL;BELONGS_HERE;YES;STUDY
$_VERSION;0;PID_OFFSET;0;COLOR;241;167;19;0;IS_COLOR_ACTIVE;1;ATTRIBUTES;2;DM/Fi
$le Type;ANSA;DM/Status;WIP;CONTAINS;SECTION_SHELL;3000001,3000501;
$ANSA_PART;PART;ID;192;MID;2000120;NAME;113_raillowerconnectorL;BELONGS_HERE;YES
$;STUDY_VERSION;0;PID_OFFSET;0;COLOR;244;133;253;0;IS_COLOR_ACTIVE;1;ATTRIBUTES;
$2;DM/File Type;ANSA;DM/Status;WIP;CONTAINS;SECTION_SHELL;3000002,3000502;
$ANSA_PART;PART;ID;193;MID;2000119;NAME;112_raillowerplateleft;BELONGS_HERE;YES;
$STUDY_VERSION;0;PID_OFFSET;0;COLOR;246;99;233;0;IS_COLOR_ACTIVE;1;ATTRIBUTES;2;
$DM/File Type;ANSA;DM/Status;WIP;CONTAINS;SECTION_SHELL;3000003,3000503;
$ANSA_PART;PART;ID;212;MID;2000165;NAME;159_railradiatorframebrkt;BELONGS_HERE;Y
$ES;STUDY_VERSION;0;PID_OFFSET;0;COLOR;161;220;95;0;IS_COLOR_ACTIVE;1;ATTRIBUTES
$;2;DM/File Type;ANSA;DM/Status;WIP;CONTAINS;SECTION_SHELL;3000005,3000505;
$ANSA_PART;PART;ID;237;MID;2000260;NAME;339_railradiatorframebrkt;BELONGS_HERE;Y
$ES;STUDY_VERSION;0;PID_OFFSET;0;COLOR;216;137;89;0;IS_COLOR_ACTIVE;1;ATTRIBUTES
$;2;DM/File Type;ANSA;DM/Status;WIP;CONTAINS;SECTION_SHELL;3000006,3000506;
$ANSA_PART;PART;ID;445;MID;2000270;NAME;479_railrightinternal1;BELONGS_HERE;YES;
$STUDY_VERSION;0;PID_OFFSET;0;COLOR;169;222;128;0;IS_COLOR_ACTIVE;1;ATTRIBUTES;2
$;DM/File Type;ANSA;DM/Status;WIP;CONTAINS;SECTION_SHELL;3000009,3000509;
$ANSA_PART;PART;ID;446;MID;2000269;NAME;480_railrightinternal2;BELONGS_HERE;YES;
$STUDY_VERSION;0;PID_OFFSET;0;COLOR;171;188;108;0;IS_COLOR_ACTIVE;1;ATTRIBUTES;2
$;DM/File Type;ANSA;DM/Status;WIP;CONTAINS;SECTION_SHELL;3000008,3000508;
$ANSA_PART;PART;ID;878;NAME;BARs;BELONGS_HERE;YES;STUDY_VERSION;0;PID_OFFSET;0;C
$OLOR;240;71;111;0;IS_COLOR_ACTIVE;1;ATTRIBUTES;2;DM/File Type;ANSA;DM/Status;WI
$P;CONTAINS;SECTION_BEAM_ELFORM_9;4000486;
$ANSA_PART;PART;ID;934;NAME;RIGIDs;BELONGS_HERE;YES;STUDY_VERSION;0;PID_OFFSET;0
$;COLOR;237;212;230;0;IS_COLOR_ACTIVE;1;ATTRIBUTES;2;DM/File Type;ANSA;DM/Status
$;WIP;CONTAINS;CONSTRAINED_NODAL_RIGID_BODY;3177-3179,3193-3198,3470,3697,4909-4
$911,4916-4918,4920,4923,10934;CONSTRAINED_SPOTWELD;1450,1470-1491,2895-2896,368
$1,3683,3685,3689-3695,3698-3699,3705,4912-4915,4919,4921-4922,4924-4926,10921,1
$0935;
*END
